Resultados_Ferramenta_Computacional_ds_ons_122023_rv0d29/ds_ons_122023_rv0d29_Estagio03.m
function mpc = ds_ons_122023_rv0d29_Estagio03
% CASO SIN: extraido dos arquivos de dados do DESSEM
%
% CASO SIN: Fluxo de Potencia do SIN extraido de arquivo de dados do DESSEM
% Autores Francisco Povoas e Murilo Reolon
%
%   MATPOWER
%
%% MATPOWER Case Format : Version 2
mpc.version = '2';
%
%%-----  Power Flow Data  -----%%

%% system MVA base
mpc.baseMVA = 100;

%% bus data
%	bus_i   type    Pd      Qd      Gs      Bs      area    Vm      Va      baseKV  zone    Vmax    Vmin
mpc.bus = [
   10      1       32.0    -779.9  0       0       221     0.976   105     992     0       1.05    0.95;
   11      2       0       0       0       0       221     0.953   112     992     0       1.05    0.95;
   12      2       0       0       0       0       204     1.0     101     992     0       1.05    0.95;
   13      1       0       -162.6  0       0       204     0.98    97.1    990     0       1.05    0.95;
   14      2       0       0       0       0       225     0.958   105     992     0       1.05    0.95;
   16      2       0       0       0       0       189     0.99    100     992     0       1.05    0.95;
   17      1       0       -390.0  0       0       189     0.93    93.7    990     0       1.05    0.95;
   18      2       0       0       0       0       188     0.977   88.8    992     0       1.05    0.95;
   19      1       0       -1632.0 0       0       188     0.979   84.1    990     0       1.05    0.95;
   20      2       0       0       0       0       188     1.012   99.7    992     0       1.05    0.95;
   21      2       0       0       0       0       137     0.968   96      992     0       1.05    0.95;
   22      2       0       0       0       0       189     1.041   97.3    992     0       1.05    0.95;
   23      1       0       152.0   0       0       149     1.014   57.2    990     0       1.05    0.95;
   24      2       0       0       0       0       208     0.944   96.9    992     0       1.05    0.95;
   27      1       0       0       0       0       202     1.008   103     500     0       1.1     1;
   28      2       0       0       0       0       208     0.965   113     992     0       1.05    0.95;
   30      1       0       419.0   0       0       224     0.997   100     992     0       1.05    0.95;
   31      1       0       132.0   0       0       224     0.997   100     992     0       1.05    0.95;
   32      1       0       183.0   0       0       224     0.997   100     992     0       1.05    0.95;
   35      2       0       0       0       0       148     1.016   77.3    992     0       1.05    0.95;
   36      2       0       0       0       0       147     0.977   63.5    992     0       1.05    0.95;
   37      1       0       -107.4  0       0       147     0.97    57.5    990     0       1.05    0.95;
   38      1       0       -879.4  0       0       221     1.01    100     13.8    0       1.05    0.95;
   41      1       0       -141.0  0       0       234     0.971   71.3    990     0       1.05    0.95;
   44      1       0       -885.9  0       0       221     1.01    100     13.8    0       1.05    0.95;
   46      1       0       0       0       0       222     0.718   83.4    15      0       1.9     0.4;
   47      1       0       -150.6  0       0       234     0.971   71.3    990     0       1.05    0.95;
   48      1       0       556.0   0       0       204     0.976   104     20      0       1.05    0.95;
   50      1       0       -689.3  0       0       201     0.989   101     20      0       1.05    0.95;
   52      1       0       0       0       0       222     0.772   83.4    345     0       1.05    0.95;
   53      1       0       -935.9  0       0       222     0.969   83.4    20      0       1.05    0.95;
   54      2       0       0       0       0       222     0.969   83.4    20      0       1.05    0.95;
   56      1       0       0       0       0       201     0.737   121     69      0       1.9     0.4;
   57      1       0       0       0       0       201     0.69    121     69      0       1.9     0.4;
   58      1       0       0       0       0       201     0.836   121     991     0       1.9     0.4;
   59      1       0       0       0       0       201     0.827   121     991     0       1.9     0.4;
   60      1       0       0       0       0       201     0.836   125     765     0       1.046   0.9;
   61      1       0       0       0       0       240     0.787   127     500     0       1.1     1;
   62      1       0       0       0       0       201     0.866   115     765     0       1.046   0.9;
   63      1       0       0       0       0       201     0.866   115     765     0       1.046   0.9;
   64      1       0       0       0       0       201     0.864   115     765     0       1.046   0.9;
   65      1       0       0       0       0       201     0.869   119     765     0       1.046   0.9;
   66      1       0       0       0       0       101     0.833   120     525     0       1.048   0.95;
   67      1       0.24    0.0     0       0       201     0.687   121     69      0       1.9     0.4;
   68      1       0       0       0       0       201     0.833   121     991     0       1.9     0.4;
   69      1       0       0       0       0       201     0.872   125     765     0       1.046   0.9;
   70      1       0       0       0       0       201     0.873   125     765     0       1.046   0.9;
   71      1       0       0       0       0       201     0.869   125     765     0       1.046   0.9;
   72      1       0       0       0       0       201     0.923   113     765     0       1.046   0.9;
   73      1       0       0       0       0       201     1.019   120     765     0       1.046   0.9;
   74      1       0       0       0       0       201     0.753   120     765     0       1.046   0.9;
   75      1       0       0       0       0       201     0.742   120     765     0       1.046   0.9;
   76      1       0       0       0       0       201     0.755   106     765     0       1.046   0.9;
   77      1       0       0       0       0       202     1.03    105     500     0       1.1     1;
   78      1       0       0       0       0       204     0.998   101     345     0       1.05    0.95;
   79      1       0       0       0       0       201     0.659   105     69      0       1.9     0.4;
   80      1       0       0       0       0       201     0.768   105     991     0       1.9     0.4;
   81      1       0       0       0       0       201     0.765   101     991     0       1.9     0.4;
   82      1       0       0       0       0       204     0.98    101     345     0       1.05    0.95;
   84      1       0       0       0       0       225     1.02    102     138     0       1.05    0.95;
   85      1       60.0    0.0     0       0       241     1.084   -0.13   500     0       1.1     1;
   86      1       0       676.0   0       0       204     1.03    104     345     0       1.05    0.95;
   87      1       0       0       0       0       221     1.012   103     500     0       1.1     1;
   90      1       0       0       0       0       234     0.439   71.6    345     0       1.05    0.95;
   91      1       0       0       0       0       234     0.745   70.6    13.8    0       1.9     0.4;
   92      1       0       0       0       0       147     0.826   70.3    500     0       1.1     1;
   93      1       0       0       0       0       147     0.828   68.9    500     0       1.1     1;
   94      1       0       0       0       0       147     0.831   69.3    500     0       1.1     1;
   95      1       0       0       0       0       234     0.745   70.6    13.8    0       1.9     0.4;
   96      1       0       0       0       0       234     0.745   70.6    13.8    0       1.9     0.4;
   99      1       0       0       0       0       202     0.636   108     500     0       1.1     1;
   100     1       0       0       0       0       188     1.087   95.7    500     0       1.1     1;
   101     1       0       0       0       0       202     0.997   105     500     0       1.1     1;
   102     1       0       0       0       0       188     1.117   100     500     0       1.1     1;
   103     1       0       0       0       0       202     0.902   104     500     0       1.1     1;
   104     1       0       0       0       0       202     0.957   103     500     0       1.1     1;
   105     1       0       0       0       0       221     0.931   106     500     0       1.1     1;
   106     1       0       0       0       0       221     0.964   103     500     0       1.1     1;
   107     1       0       0       0       0       221     0.855   102     500     0       1.1     1;
   108     1       0       0       0       0       221     0.85    102     500     0       1.1     1;
   109     1       0       0       0       0       221     0.964   103     500     0       1.1     1;
   110     1       0       0       0       0       221     0.798   100     991     0       1.9     0.4;
   112     1       0       0       0       0       101     0.95    116     500     0       1.1     1;
   113     1       0       0       0       0       101     0.95    116     500     0       1.1     1;
   114     1       0       0       0       0       101     0.95    116     500     0       1.1     1;
   115     1       0       0       0       0       101     1.003   127     500     0       1.1     1;
   116     1       0       0       0       0       226     0.608   95      138     0       1.05    0.95;
   118     1       0       0       0       0       148     0.978   73.7    991     0       1.9     0.4;
   119     1       0       0       0       0       148     0.978   73.7    13.8    0       1.9     0.4;
   120     1       0       0       0       0       189     1.011   96.9    345     0       1.05    0.95;
   121     1       0       0       0       0       188     0.94    96.1    991     0       1.9     0.4;
   122     1       0       0       0       0       202     1.076   108     500     0       1.1     1;
   123     1       0       0       0       0       204     0.964   101     345     0       1.05    0.95;
   124     1       0       0       0       0       202     0.858   100     991     0       1.9     0.4;
   125     1       0       0       0       0       202     1.273   98.2    500     0       1.1     1;
   126     1       0       0       0       0       204     0.686   98.1    345     0       1.05    0.95;
   127     1       0       0       0       0       204     0.905   99.3    345     0       1.05    0.95;
   128     1       0       0       0       0       204     0.905   99.3    345     0       1.05    0.95;
   129     1       0       0       0       0       204     0.905   98.6    345     0       1.05    0.95;
   130     1       0       0       0       0       202     1.273   98.2    500     0       1.1     1;
   131     1       0       0       0       0       189     0.895   97.3    345     0       1.05    0.95;
   133     1       0       0       0       0       222     0.624   96.3    991     0       1.9     0.4;
   134     1       0       0       0       0       204     0.941   97.1    345     0       1.05    0.95;
   135     1       0       0       0       0       222     0.729   98.6    991     0       1.9     0.4;
   136     1       0       0       0       0       189     0.82    93.7    345     0       1.05    0.95;
   137     1       0       0       0       0       222     0.729   98.6    991     0       1.9     0.4;
   138     1       0       0       0       0       189     0.87    88.1    345     0       1.05    0.95;
   139     1       0       0       0       0       221     0.803   98.8    991     0       1.9     0.4;
   140     1       0       0       0       0       222     0.995   98.2    345     0       1.05    0.95;
   141     1       0       0       0       0       221     0.754   96.8    991     0       1.9     0.4;
   142     1       0       0       0       0       221     0.75    97.1    991     0       1.9     0.4;
   143     1       0       0       0       0       222     0.639   96.2    991     0       1.9     0.4;
   144     1       0       0       0       0       222     0.703   98.8    345     0       1.05    0.95;
   145     1       0       0       0       0       222     0.629   96.2    991     0       1.9     0.4;
   146     1       0       0       0       0       222     0.627   96.2    991     0       1.9     0.4;
   147     1       0       0       0       0       222     1.008   83.4    345     0       1.05    0.95;
   148     1       0       0       0       0       222     0.489   82.7    991     0       1.9     0.4;
   149     1       0       0       0       0       234     0.75    71.3    345     0       1.05    0.95;
   150     1       0       0       0       0       234     0.772   69.4    991     0       1.9     0.4;
   152     1       0       0       0       0       234     0.772   69.4    991     0       1.9     0.4;
   153     1       0       0       0       0       234     0.773   69.3    991     0       1.9     0.4;
   154     1       0       0       0       0       234     0.788   69.4    13.8    0       1.9     0.4;
   155     1       0       0       0       0       234     0.789   69.3    13.8    0       1.9     0.4;
   156     1       0       0       0       0       234     0.784   69.5    13.8    0       1.9     0.4;
   158     1       0       0       0       0       234     0.77    69.5    991     0       1.9     0.4;
   159     1       0       0       0       0       222     0.702   98.6    13.8    0       1.9     0.4;
   160     1       0       0       0       0       222     0.708   98.6    13.8    0       1.9     0.4;
   161     1       0       0       0       0       205     0.993   98.4    230     0       1.05    0.95;
   162     1       0       0       0       0       204     0.778   101     991     0       1.9     0.4;
   163     1       0       0       0       0       204     0.732   101     13.8    0       1.9     0.4;
   164     1       0       0       0       0       189     0.779   95.2    991     0       1.9     0.4;
   165     1       0       0       0       0       189     0.718   95.2    13.8    0       1.9     0.4;
   166     1       0       0       0       0       222     0.731   98.6    991     0       1.9     0.4;
   167     1       0       0       0       0       222     0.702   98.6    13.8    0       1.9     0.4;
   169     1       0       0       0       0       224     0.998   99      138     0       1.05    0.95;
   170     1       0       0       0       0       196     1.043   95.4    138     0       1.05    0.95;
   171     1       0       0       0       0       207     0.824   101     138     0       1.05    0.95;
   172     1       0       0       0       0       226     0.711   97.7    138     0       1.05    0.95;
   173     1       0       0       0       0       226     0.986   96.3    138     0       1.05    0.95;
   174     1       0       0       0       0       228     0.652   87.7    138     0       1.05    0.95;
   175     1       0       0       0       0       229     1.0     82.8    138     0       1.05    0.95;
   176     1       0       0       0       0       202     0.853   101     991     0       1.9     0.4;
   177     1       0       0       0       0       236     0.999   69.6    138     0       1.05    0.95;
   178     1       0       0       0       0       224     0.998   100     138     0       1.05    0.95;
   179     1       0       0       0       0       221     0.798   100     991     0       1.9     0.4;
   180     1       0       0       0       0       224     1.001   98.7    138     0       1.05    0.95;
   181     1       0       0       0       0       221     0.996   99.4    138     0       1.05    0.95;
   182     1       0       0       0       0       225     0.87    102     138     0       1.05    0.95;
   183     1       0       0       0       0       214     1.009   102     138     0       1.05    0.95;
   184     1       0       0       0       0       224     1.07    100     138     0       1.05    0.95;
   185     1       0       0       0       0       225     1.209   114     138     0       1.05    0.95;
   186     1       0       0       0       0       202     0.853   101     13.8    0       1.9     0.4;
   187     1       0       0       0       0       195     1.015   96.9    138     0       1.05    0.95;
   189     1       0       0       0       0       159     0.734   60.6    991     0       1.9     0.4;
   190     1       0       0       0       0       208     1.003   108     138     0       1.05    0.95;
   192     1       0       0       0       0       222     0.489   82.7    13.8    0       1.9     0.4;
   194     1       0       0       0       0       221     0.664   97.1    13.8    0       1.9     0.4;
   195     1       0       0       0       0       221     0.664   96.8    13.8    0       1.9     0.4;
   196     1       0       0       0       0       202     0.715   100     13.8    0       1.9     0.4;
   197     1       0       0       0       0       221     0.803   98.8    13.8    0       1.9     0.4;
   198     1       0       0       0       0       188     0.793   96.1    13.8    0       1.9     0.4;
   199     1       0       0       0       0       234     0.788   69.4    13.8    0       1.9     0.4;
   200     1       0       0       0       0       229     0.434   81.1    991     0       1.9     0.4;
   201     1       0       0       0       0       229     0.528   81.1    992     0       1.05    0.95;
   202     1       0       0       0       0       229     0.528   81.1    991     0       1.9     0.4;
   203     1       0       0       0       0       229     0.528   81.1    992     0       1.05    0.95;
   204     1       0       0       0       0       222     0.712   96.2    13.8    0       1.9     0.4;
   205     1       0       0       0       0       222     0.711   96.2    13.8    0       1.9     0.4;
   206     1       0       0       0       0       222     0.712   96.2    13.8    0       1.9     0.4;
   208     1       0       0       0       0       159     0.821   60.6    13.8    0       1.9     0.4;
   209     1       0       0       0       0       222     0.711   96.3    13.8    0       1.9     0.4;
   210     1       0       0       0       0       188     0.844   84.1    500     0       1.1     1;
   211     1       0       0       0       0       222     0.588   82.7    991     0       1.9     0.4;
   212     1       0       0       0       0       222     0.588   82.7    13.8    0       1.9     0.4;
   213     1       0       0       0       0       189     1.04    94.3    345     0       1.05    0.95;
   214     1       0       0       0       0       188     0.994   94      991     0       1.9     0.4;
   216     1       0       0       0       0       189     0.839   92.9    345     0       1.05    0.95;
   217     1       0       0       0       0       189     0.242   82      345     0       1.05    0.95;
   218     1       0       0       0       0       148     1.044   73.3    345     0       1.05    0.95;
   219     1       0       0       0       0       158     0.948   63.9    345     0       1.05    0.95;
   220     1       0       0       0       0       148     0.914   77.3    345     0       1.05    0.95;
   221     1       0       0       0       0       160     1.007   60.7    34.5    0       1.05    0.95;
   222     1       0       0       0       0       158     0.96    62.9    991     0       1.9     0.4;
   223     1       0       0       0       0       148     1.133   73.7    991     0       1.9     0.4;
   224     1       0       0       0       0       148     1.086   73.7    991     0       1.9     0.4;
   225     1       0       0       0       0       190     1.035   81.6    230     0       1.05    0.95;
   226     1       0       0       0       0       149     1.144   73.6    230     0       1.05    0.95;
   227     1       0       0       0       0       159     0.958   63      230     0       1.05    0.95;
   228     1       0       0       0       0       159     0.958   63.1    230     0       1.05    0.95;
   229     1       0       0       0       0       149     0.984   49.8    230     0       1.05    0.95;
   230     1       0       0       0       0       149     1.018   56.2    230     0       1.05    0.95;
   231     1       0       0       0       0       149     0.673   82      230     0       1.05    0.95;
   232     1       0       0       0       0       158     0.96    62.9    13.8    0       1.9     0.4;
   233     1       0       0       0       0       157     1.015   63.6    500     0       1.1     1;
   234     1       0       0       0       0       158     1.01    64      345     0       1.05    0.95;
   235     1       0       0       0       0       147     0.991   57.5    500     0       1.1     1;
   236     1       0       0       0       0       160     1.011   61.6    138     0       1.05    0.95;
   237     1       0       0       0       0       160     1.048   62.7    138     0       1.05    0.95;
   238     1       0       0       0       0       153     0.986   80.4    138     0       1.05    0.95;
   239     1       0       0       0       0       154     1.013   54.7    138     0       1.05    0.95;
...
];
%% generator data
%	bus       Pg        Qg        Qmax      Qmin      Vg        mBase     status    Pmax      Pmin      Pc1       Pc2       Qc1min    Qc1max    Qc2min    Qc2max    ramp_agc  ramp_10   ramp_30   ramp_q    apf
mpc.gen = [
   11        1350.0    1352.0    600.0     -350.0    0.953     100       1         1350.0    0.0       0.00      0.00      0.00      0.00      0.00      0.00      0.00      0.00      0.00      0.00      0.00;
   12        771.41    355.5     210.0     -270.0    1.0       100       1         875.0     0.0       0.00      0.00      0.00      0.00      0.00      0.00      0.00      0.00      0.00      0.00      0.00;
   14        96.64     116.5     50.0      -50.0     0.958     100       1         216.0     0.0       0.00      0.00      0.00      0.00      0.00      0.00      0.00      0.00      0.00      0.00      0.00;
   16        912.0     428.4     150.0     -150.0    0.99      100       1         912.0     0.0       0.00      0.00      0.00      0.00      0.00      0.00      0.00      0.00      0.00      0.00      0.00;
   16        289.97    428.4     150.0     -150.0    0.99      100       1         304.0     0.0       0.00      0.00      0.00      0.00      0.00      0.00      0.00      0.00      0.00      0.00      0.00;
   18        1709.99   318.9     100.0     -91.0     0.977     100       1         1735.0    0.0       0.00      0.00      0.00      0.00      0.00      0.00      0.00      0.00      0.00      0.00      0.00;
   20        1118.71   -401.0    160.0     -160.0    1.012     100       1         1440.0    0.0       0.00      0.00      0.00      0.00      0.00      0.00      0.00      0.00      0.00      0.00      0.00;
   21        126.62    -199.0    42.0      -40.0     0.968     100       1         157.5     0.0       0.00      0.00      0.00      0.00      0.00      0.00      0.00      0.00      0.00      0.00      0.00;
   22        196.0     92.75     0.0       0.0       1.041     100       1         196.0     0.0       0.00      0.00      0.00      0.00      0.00      0.00      0.00      0.00      0.00      0.00      0.00;
   22        32.01     92.75     0.0       0.0       1.041     100       1         104.0     0.0       0.00      0.00      0.00      0.00      0.00      0.00      0.00      0.00      0.00      0.00      0.00;
   24        80.0      65.1      0.0       0.0       0.944     100       1         80.0      0.0       0.00      0.00      0.00      0.00      0.00      0.00      0.00      0.00      0.00      0.00      0.00;
   24        39.92     65.1      0.0       0.0       0.944     100       1         96.0      0.0       0.00      0.00      0.00      0.00      0.00      0.00      0.00      0.00      0.00      0.00      0.00;
   28        191.81    -61.9     25.0      -25.0     0.965     100       1         240.0     0.0       0.00      0.00      0.00      0.00      0.00      0.00      0.00      0.00      0.00      0.00      0.00;
   35        292.88    282.5     0.0       0.0       1.016     100       1         375.0     0.0       0.00      0.00      0.00      0.00      0.00      0.00      0.00      0.00      0.00      0.00      0.00;
   36        1224.56   135.4     160.0     -160.0    0.977     100       1         1275.0    0.0       0.00      0.00      0.00      0.00      0.00      0.00      0.00      0.00      0.00      0.00      0.00;
   54        0.0       0.0       0.0       0.0       0.969     100       1         1338.3    0.0       0.00      0.00      0.00      0.00      0.00      0.00      0.00      0.00      0.00      0.00      0.00;
   250       73.51     -61.4     50.0      -21.4     0.963     100       1         95.24     0.0       0.00      0.00      0.00      0.00      0.00      0.00      0.00      0.00      0.00      0.00      0.00;
   253       72.68     -74.1     50.0      -16.8     0.961     100       1         88.0      0.0       0.00      0.00      0.00      0.00      0.00      0.00      0.00      0.00      0.00      0.00      0.00;
   255       33.64     -68.0     70.0      -20.0     0.964     100       1         99.9      0.0       0.00      0.00      0.00      0.00      0.00      0.00      0.00      0.00      0.00      0.00      0.00;
   257       27.41     35.97     59.8      -23.7     0.956     100       1         27.41     0.0       0.00      0.00      0.00      0.00      0.00      0.00      0.00      0.00      0.00      0.00      0.00;
   257       27.3      35.97     59.8      -23.7     0.956     100       1         27.3      0.0       0.00      0.00      0.00      0.00      0.00      0.00      0.00      0.00      0.00      0.00      0.00;
   257       20.26     35.97     59.8      -23.7     0.956     100       1         32.01     0.0       0.00      0.00      0.00      0.00      0.00      0.00      0.00      0.00      0.00      0.00      0.00;
   257       0.0       0.0       59.8      -23.7     0.956     100       1         49.05     0.0       0.00      0.00      0.00      0.00      0.00      0.00      0.00      0.00      0.00      0.00      0.00;
   257       0.0       0.0       59.8      -23.7     0.956     100       1         51.4      0.0       0.00      0.00      0.00      0.00      0.00      0.00      0.00      0.00      0.00      0.00      0.00;
   296       11.93     -23.1     20.0      -20.0     1.0       100       1         56.04     0.0       0.00      0.00      0.00      0.00      0.00      0.00      0.00      0.00      0.00      0.00      0.00;
   300       1144.66   -205.0    98.0      -110.0    0.962     100       1         1192.0    0.0       0.00      0.00      0.00      0.00      0.00      0.00      0.00      0.00      0.00      0.00      0.00;
   301       93.47     -132.0    35.0      -35.0     0.968     100       1         424.0     0.0       0.00      0.00      0.00      0.00      0.00      0.00      0.00      0.00      0.00      0.00      0.00;
   302       500.33    -108.0    0.0       0.0       0.997     100       1         510.0     0.0       0.00      0.00      0.00      0.00      0.00      0.00      0.00      0.00      0.00      0.00      0.00;
   303       1329.32   -1423.0   0.0       0.0       1.014     100       1         1425.0    0.0       0.00      0.00      0.00      0.00      0.00      0.00      0.00      0.00      0.00      0.00      0.00;
   304       141.8     409.6     30.0      -30.0     1.005     100       1         396.0     0.0       0.00      0.00      0.00      0.00      0.00      0.00      0.00      0.00      0.00      0.00      0.00;
   305       247.69    -106.0    30.0      -30.0     0.971     100       1         285.0     0.0       0.00      0.00      0.00      0.00      0.00      0.00      0.00      0.00      0.00      0.00      0.00;
   306       31.41     -67.9     0.0       0.0       0.989     100       1         140.0     0.0       0.00      0.00      0.00      0.00      0.00      0.00      0.00      0.00      0.00      0.00      0.00;
   312       395.75    -332.0    0.0       0.0       0.939     100       1         408.0     0.0       0.00      0.00      0.00      0.00      0.00      0.00      0.00      0.00      0.00      0.00      0.00;
   317       21.39     -71.2     16.0      -16.0     0.98      100       1         60.0      0.0       0.00      0.00      0.00      0.00      0.00      0.00      0.00      0.00      0.00      0.00      0.00;
   343       4.15      -44.3     28.0      -28.0     0.983     100       1         210.0     0.0       0.00      0.00      0.00      0.00      0.00      0.00      0.00      0.00      0.00      0.00      0.00;
   404       0.0       0.0       0.0       0.0       0.957     100       1         280.0     0.0       0.00      0.00      0.00      0.00      0.00      0.00      0.00      0.00      0.00      0.00      0.00;
   404       0.0       0.0       0.0       0.0       0.957     100       1         280.0     0.0       0.00      0.00      0.00      0.00      0.00      0.00      0.00      0.00      0.00      0.00      0.00;
   405       0.0       0.0       0.0       0.0       0.981     100       1         140.0     0.0       0.00      0.00      0.00      0.00      0.00      0.00      0.00      0.00      0.00      0.00      0.00;
   405       0.0       0.0       0.0       0.0       0.981     100       1         140.0     0.0       0.00      0.00      0.00      0.00      0.00      0.00      0.00      0.00      0.00      0.00      0.00;
   406       0.0       0.0       0.0       0.0       0.998     100       1         140.0     0.0       0.00      0.00      0.00      0.00      0.00      0.00      0.00      0.00      0.00      0.00      0.00;
   406       0.0       0.0       0.0       0.0       0.998     100       1         140.0     0.0       0.00      0.00      0.00      0.00      0.00      0.00      0.00      0.00      0.00      0.00      0.00;
   500       1303.07   210.0     180.0     -180.0    1.0       100       1         1396.2    0.0       0.00      0.00      0.00      0.00      0.00      0.00      0.00      0.00      0.00      0.00      0.00;
   501       704.0     1429.33   200.0     -200.0    1.007     100       1         704.0     0.0       0.00      0.00      0.00      0.00      0.00      0.00      0.00      0.00      0.00      0.00      0.00;
   501       1700.0    1429.33   200.0     -200.0    1.007     100       1         1700.0    0.0       0.00      0.00      0.00      0.00      0.00      0.00      0.00      0.00      0.00      0.00      0.00;
   501       864.57    1429.33   200.0     -200.0    1.007     100       1         870.0     0.0       0.00      0.00      0.00      0.00      0.00      0.00      0.00      0.00      0.00      0.00      0.00;
   503       1153.64   129.1     48.0      -48.0     0.959     100       1         1440.4    0.0       0.00      0.00      0.00      0.00      0.00      0.00      0.00      0.00      0.00      0.00      0.00;
   505       106.59    135.9     36.0      -36.0     0.979     100       1         354.0     0.0       0.00      0.00      0.00      0.00      0.00      0.00      0.00      0.00      0.00      0.00      0.00;
   506       84.93     14.99     37.2      -37.6     0.959     100       1         100.96    0.0       0.00      0.00      0.00      0.00      0.00      0.00      0.00      0.00      0.00      0.00      0.00;
   507       111.95    69.56     154.0     -154.0    0.964     100       1         163.0     0.0       0.00      0.00      0.00      0.00      0.00      0.00      0.00      0.00      0.00      0.00      0.00;
   507       0.0       0.0       154.0     -154.0    0.964     100       1         480.0     0.0       0.00      0.00      0.00      0.00      0.00      0.00      0.00      0.00      0.00      0.00      0.00;
   508       17.53     26.09     16.0      -12.0     0.979     100       1         55.0      0.0       0.00      0.00      0.00      0.00      0.00      0.00      0.00      0.00      0.00      0.00      0.00;
   509       15.87     8.34      20.0      -16.0     0.98      100       1         72.0      0.0       0.00      0.00      0.00      0.00      0.00      0.00      0.00      0.00      0.00      0.00      0.00;
   510       682.8     944.6     360.0     -360.0    0.957     100       1         1540.0    0.0       0.00      0.00      0.00      0.00      0.00      0.00      0.00      0.00      0.00      0.00      0.00;
   512       15.46     76.57     18.0      -18.0     0.979     100       1         73.8      0.0       0.00      0.00      0.00      0.00      0.00      0.00      0.00      0.00      0.00      0.00      0.00;
   513       124.48    88.98     144.0     -144.0    0.98      100       1         525.0     0.0       0.00      0.00      0.00      0.00      0.00      0.00      0.00      0.00      0.00      0.00      0.00;
   514       103.5     41.31     100.0     -100.0    0.956     100       1         103.5     0.0       0.00      0.00      0.00      0.00      0.00      0.00      0.00      0.00      0.00      0.00      0.00;
   514       48.95     41.31     100.0     -100.0    0.956     100       1         310.5     0.0       0.00      0.00      0.00      0.00      0.00      0.00      0.00      0.00      0.00      0.00      0.00;
   515       84.19     4.29      0.0       0.0       0.974     100       1         143.1     0.0       0.00      0.00      0.00      0.00      0.00      0.00      0.00      0.00      0.00      0.00      0.00;
   516       43.56     -9.66     28.0      -28.0     0.975     100       1         70.38     0.0       0.00      0.00      0.00      0.00      0.00      0.00      0.00      0.00      0.00      0.00      0.00;
   517       101.37    73.58     18.0      -18.0     0.974     100       1         131.49    0.0       0.00      0.00      0.00      0.00      0.00      0.00      0.00      0.00      0.00      0.00      0.00;
   518       332.0     126.4     0.0       0.0       0.959     100       1         347.4     0.0       0.00      0.00      0.00      0.00      0.00      0.00      0.00      0.00      0.00      0.00      0.00;
   519       154.64    218.3     47.0      -47.0     0.961     100       1         176.0     0.0       0.00      0.00      0.00      0.00      0.00      0.00      0.00      0.00      0.00      0.00      0.00;
   520       532.21    782.2     0.0       0.0       1.041     100       1         807.5     0.0       0.00      0.00      0.00      0.00      0.00      0.00      0.00      0.00      0.00      0.00      0.00;
   521       41.2      -47.3     25.0      -25.0     0.975     100       1         41.2      0.0       0.00      0.00      0.00      0.00      0.00      0.00      0.00      0.00      0.00      0.00      0.00;
   521       5.89      -47.3     25.0      -25.0     0.975     100       1         39.2      0.0       0.00      0.00      0.00      0.00      0.00      0.00      0.00      0.00      0.00      0.00      0.00;
   522       40.38     -175.0    34.0      -34.0     0.972     100       1         108.8     0.0       0.00      0.00      0.00      0.00      0.00      0.00      0.00      0.00      0.00      0.00      0.00;
   523       7.16      -38.3     8.5       -8.5      0.989     100       1         32.0      0.0       0.00      0.00      0.00      0.00      0.00      0.00      0.00      0.00      0.00      0.00      0.00;
   525       10.19     -26.1     0.0       0.0       0.998     100       1         13.8      0.0       0.00      0.00      0.00      0.00      0.00      0.00      0.00      0.00      0.00      0.00      0.00;
   526       43.04     72.0      0.0       0.0       1.003     100       1         43.04     0.0       0.00      0.00      0.00      0.00      0.00      0.00      0.00      0.00      0.00      0.00      0.00;
   526       20.37     72.0      0.0       0.0       1.003     100       1         43.98     0.0       0.00      0.00      0.00      0.00      0.00      0.00      0.00      0.00      0.00      0.00      0.00;
   614       63.36     41.11     0.0       0.0       1.032     100       1         80.0      0.0       0.00      0.00      0.00      0.00      0.00      0.00      0.00      0.00      0.00      0.00      0.00;
   750       14.24     163.3     0.0       0.0       0.953     100       1         34.0      0.0       0.00      0.00      0.00      0.00      0.00      0.00      0.00      0.00      0.00      0.00      0.00;
   751       84.86     58.23     0.0       0.0       0.952     100       1         162.0     0.0       0.00      0.00      0.00      0.00      0.00      0.00      0.00      0.00      0.00      0.00      0.00;
   753       224.54    219.2     0.0       0.0       0.992     100       1         252.0     0.0       0.00      0.00      0.00      0.00      0.00      0.00      0.00      0.00      0.00      0.00      0.00;
   754       0.0       0.0       0.0       0.0       1.017     100       1         210.0     0.0       0.00      0.00      0.00      0.00      0.00      0.00      0.00      0.00      0.00      0.00      0.00;
   800       1159.62   -789.0    600.0     -600.0    0.959     100       1         1257.0    0.0       0.00      0.00      0.00      0.00      0.00      0.00      0.00      0.00      0.00      0.00      0.00;
   802       0.0       0.0       0.0       0.0       0.987     100       1         235.0     0.0       0.00      0.00      0.00      0.00      0.00      0.00      0.00      0.00      0.00      0.00      0.00;
   802       0.0       0.0       0.0       0.0       0.987     100       1         235.0     0.0       0.00      0.00      0.00      0.00      0.00      0.00      0.00      0.00      0.00      0.00      0.00;
   803       0.0       0.0       0.0       0.0       0.987     100       1         484.15    0.0       0.00      0.00      0.00      0.00      0.00      0.00      0.00      0.00      0.00      0.00      0.00;
   804       148.87    -206.0    68.0      -66.0     0.936     100       1         195.0     0.0       0.00      0.00      0.00      0.00      0.00      0.00      0.00      0.00      0.00      0.00      0.00;
   806       92.13     501.8     58.0      -58.0     0.938     100       1         120.16    0.0       0.00      0.00      0.00      0.00      0.00      0.00      0.00      0.00      0.00      0.00      0.00;
   808       778.1     1213.0    446.8     -600.0    0.972     100       1         930.0     0.0       0.00      0.00      0.00      0.00      0.00      0.00      0.00      0.00      0.00      0.00      0.00;
   810       1047.61   -61.5     277.5     -300.0    0.983     100       1         1260.0    0.0       0.00      0.00      0.00      0.00      0.00      0.00      0.00      0.00      0.00      0.00      0.00;
   904       428.2     376.6     450.0     -450.0    0.972     100       1         1450.0    0.0       0.00      0.00      0.00      0.00      0.00      0.00      0.00      0.00      0.00      0.00      0.00;
   907       0.0       0.0       0.0       0.0       0.952     100       1         40.0      0.0       0.00      0.00      0.00      0.00      0.00      0.00      0.00      0.00      0.00      0.00      0.00;
   907       0.0       0.0       0.0       0.0       0.952     100       1         40.0      0.0       0.00      0.00      0.00      0.00      0.00      0.00      0.00      0.00      0.00      0.00      0.00;
   909       55.0      -406.0    48.0      -42.0     0.971     100       1         55.0      0.0       0.00      0.00      0.00      0.00      0.00      0.00      0.00      0.00      0.00      0.00      0.00;
   911       110.0     -259.0    68.5      -15.5     0.99      100       1         110.0     0.0       0.00      0.00      0.00      0.00      0.00      0.00      0.00      0.00      0.00      0.00      0.00;
   913       300.0     -666.0    164.5     -61.0     0.957     100       1         330.0     0.0       0.00      0.00      0.00      0.00      0.00      0.00      0.00      0.00      0.00      0.00      0.00;
   915       693.06    -553.0    420.0     -440.0    0.957     100       1         1140.0    0.0       0.00      0.00      0.00      0.00      0.00      0.00      0.00      0.00      0.00      0.00      0.00;
   917       198.14    4.37      115.0     -115.0    0.939     100       1         226.0     0.0       0.00      0.00      0.00      0.00      0.00      0.00      0.00      0.00      0.00      0.00      0.00;
   919       319.27    2734.0    212.0     -160.0    0.965     100       1         728.0     0.0       0.00      0.00      0.00      0.00      0.00      0.00      0.00      0.00      0.00      0.00      0.00;
   921       0.0       0.0       124.0     -90.0     0.973     100       1         350.0     0.0       0.00      0.00      0.00      0.00      0.00      0.00      0.00      0.00      0.00      0.00      0.00;
   925       561.17    286.2     468.0     -468.0    0.938     100       1         1420.0    0.0       0.00      0.00      0.00      0.00      0.00      0.00      0.00      0.00      0.00      0.00      0.00;
   931       46.36     30.78     28.0      -33.0     0.976     100       1         74.0      0.0       0.00      0.00      0.00      0.00      0.00      0.00      0.00      0.00      0.00      0.00      0.00;
   983       306.06    214.7     135.0     -173.0    0.936     100       1         352.08    0.0       0.00      0.00      0.00      0.00      0.00      0.00      0.00      0.00      0.00      0.00      0.00;
   998       300.0     -201.0    160.0     -115.0    0.997     100       1         345.0     0.0       0.00      0.00      0.00      0.00      0.00      0.00      0.00      0.00      0.00      0.00      0.00;
   1070      28.29     392.2     281.2     -281.0    0.958     100       1         855.0     0.0       0.00      0.00      0.00      0.00      0.00      0.00      0.00      0.00      0.00      0.00      0.00;
   1107      6124.99   -362.0    1530.0    -1340.0   1.002     100       1         7000.0    0.0       0.00      0.00      0.00      0.00      0.00      0.00      0.00      0.00      0.00      0.00      0.00;
   1150      431.31    -229.0    228.0     -228.0    0.963     100       1         690.0     0.0       0.00      0.00      0.00      0.00      0.00      0.00      0.00      0.00      0.00      0.00      0.00;
   1152      0.0       0.0       0.0       0.0       0.988     100       1         248.57    0.0       0.00      0.00      0.00      0.00      0.00      0.00      0.00      0.00      0.00      0.00      0.00;
   1155      393.07    229.2     183.0     -180.0    0.956     100       1         500.4     0.0       0.00      0.00      0.00      0.00      0.00      0.00      0.00      0.00      0.00      0.00      0.00;
   1157      682.01    -342.0    291.0     -231.0    0.982     100       1         879.99    0.0       0.00      0.00      0.00      0.00      0.00      0.00      0.00      0.00      0.00      0.00      0.00;
   1159      78.58     -143.0    60.0      -60.0     0.968     100       1         130.0     0.0       0.00      0.00      0.00      0.00      0.00      0.00      0.00      0.00      0.00      0.00      0.00;
   1162      120.52    253.3     65.0      -40.0     0.961     100       1         180.0     0.0       0.00      0.00      0.00      0.00      0.00      0.00      0.00      0.00      0.00      0.00      0.00;
   1166      91.1      -112.0    42.0      -30.0     0.972     100       1         129.99    0.0       0.00      0.00      0.00      0.00      0.00      0.00      0.00      0.00      0.00      0.00      0.00;
   1168      61.66     -105.0    48.0      -48.0     0.972     100       1         100.0     0.0       0.00      0.00      0.00      0.00      0.00      0.00      0.00      0.00      0.00      0.00      0.00;
   1173      300.0     -124.0    160.0     -115.0    0.954     100       1         350.0     0.0       0.00      0.00      0.00      0.00      0.00      0.00      0.00      0.00      0.00      0.00      0.00;
   1175      82.0      136.65    90.0      -62.0     0.969     100       1         82.0      0.0       0.00      0.00      0.00      0.00      0.00      0.00      0.00      0.00      0.00      0.00      0.00;
   1175      61.84     136.65    90.0      -62.0     0.969     100       1         76.0      0.0       0.00      0.00      0.00      0.00      0.00      0.00      0.00      0.00      0.00      0.00      0.00;
   1176      65.42     116.9     52.0      -66.0     0.97      100       1         125.0     0.0       0.00      0.00      0.00      0.00      0.00      0.00      0.00      0.00      0.00      0.00      0.00;
   1496      24.38     277.2     51.2      -62.4     0.963     100       1         140.0     0.0       0.00      0.00      0.00      0.00      0.00      0.00      0.00      0.00      0.00      0.00      0.00;
   1501      25.0      -8.4      6.0       -5.0      0.965     100       1         25.0      0.0       0.00      0.00      0.00      0.00      0.00      0.00      0.00      0.00      0.00      0.00      0.00;
   1501      11.79     -8.4      6.0       -5.0      0.965     100       1         14.0      0.0       0.00      0.00      0.00      0.00      0.00      0.00      0.00      0.00      0.00      0.00      0.00;
   1501      0.0       0.0       6.0       -5.0      0.965     100       1         13.0      0.0       0.00      0.00      0.00      0.00      0.00      0.00      0.00      0.00      0.00      0.00      0.00;
   1502      45.85     -175.0    20.0      -30.0     0.988     100       1         54.0      0.0       0.00      0.00      0.00      0.00      0.00      0.00      0.00      0.00      0.00      0.00      0.00;
   1502      0.0       0.0       20.0      -30.0     0.988     100       1         48.0      0.0       0.00      0.00      0.00      0.00      0.00      0.00      0.00      0.00      0.00      0.00      0.00;
   1511      1.91      78.47     13.2      -13.2     0.974     100       1         60.0      0.0       0.00      0.00      0.00      0.00      0.00      0.00      0.00      0.00      0.00      0.00      0.00;
   1559      30.62     183.1     66.4      -103.0    0.971     100       1         93.34     0.0       0.00      0.00      0.00      0.00      0.00      0.00      0.00      0.00      0.00      0.00      0.00;
   1585      0.0       0.0       0.0       0.0       0.958     100       1         235.0     0.0       0.00      0.00      0.00      0.00      0.00      0.00      0.00      0.00      0.00      0.00      0.00;
   1594      32.78     -124.0    37.2      -40.0     0.956     100       1         112.0     0.0       0.00      0.00      0.00      0.00      0.00      0.00      0.00      0.00      0.00      0.00      0.00;
   1599      18.23     814.9     39.0      -25.0     0.984     100       1         30.0      0.0       0.00      0.00      0.00      0.00      0.00      0.00      0.00      0.00      0.00      0.00      0.00;
   1599      0.0       0.0       39.0      -25.0     0.984     100       1         18.0      0.0       0.00      0.00      0.00      0.00      0.00      0.00      0.00      0.00      0.00      0.00      0.00;
   1599      0.0       0.0       39.0      -25.0     0.984     100       1         30.0      0.0       0.00      0.00      0.00      0.00      0.00      0.00      0.00      0.00      0.00      0.00      0.00;
   1866      23.51     72.22     23.0      -22.0     0.998     100       1         48.0      0.0       0.00      0.00      0.00      0.00      0.00      0.00      0.00      0.00      0.00      0.00      0.00;
   2031      1.19      3.04      7.2       -7.8      1.011     100       1         44.01     0.0       0.00      0.00      0.00      0.00      0.00      0.00      0.00      0.00      0.00      0.00      0.00;
   2475      96.65     513.1     58.0      -58.0     0.936     100       1         120.16    0.0       0.00      0.00      0.00      0.00      0.00      0.00      0.00      0.00      0.00      0.00      0.00;
   2600      170.79    210.9     47.94     -47.9     0.961     100       1         198.0     0.0       0.00      0.00      0.00      0.00      0.00      0.00      0.00      0.00      0.00      0.00      0.00;
   2696      25.76     147.4     20.0      -20.0     0.968     100       1         55.0      0.0       0.00      0.00      0.00      0.00      0.00      0.00      0.00      0.00      0.00      0.00      0.00;
   2836      92.66     61.6      57.0      -54.0     0.978     100       1         120.0     0.0       0.00      0.00      0.00      0.00      0.00      0.00      0.00      0.00      0.00      0.00      0.00;
   2863      127.37    -305.0    88.3      -88.3     0.964     100       1         191.88    0.0       0.00      0.00      0.00      0.00      0.00      0.00      0.00      0.00      0.00      0.00      0.00;
   2979      0.0       0.0       0.0       0.0       0.956     100       1         26.06     0.0       0.00      0.00      0.00      0.00      0.00      0.00      0.00      0.00      0.00      0.00      0.00;
   2979      0.0       0.0       0.0       0.0       0.956     100       1         27.51     0.0       0.00      0.00      0.00      0.00      0.00      0.00      0.00      0.00      0.00      0.00      0.00;
   3014      155.82    -151.0    51.48     -51.5     0.97      100       1         212.58    0.0       0.00      0.00      0.00      0.00      0.00      0.00      0.00      0.00      0.00      0.00      0.00;
   3017      0.0       0.0       0.0       0.0       1.02      100       1         68.06     0.0       0.00      0.00      0.00      0.00      0.00      0.00      0.00      0.00      0.00      0.00      0.00;
   3017      0.0       0.0       0.0       0.0       1.02      100       1         68.06     0.0       0.00      0.00      0.00      0.00      0.00      0.00      0.00      0.00      0.00      0.00      0.00;
   3524      0.0       0.0       0.0       0.0       0.999     100       1         90.0      0.0       0.00      0.00      0.00      0.00      0.00      0.00      0.00      0.00      0.00      0.00      0.00;
   3641      112.38    -86.1     0.0       0.0       0.944     100       1         129.2     0.0       0.00      0.00      0.00      0.00      0.00      0.00      0.00      0.00      0.00      0.00      0.00;
   3642      47.8      -6.5      0.0       0.0       0.969     100       1         47.8      0.0       0.00      0.00      0.00      0.00      0.00      0.00      0.00      0.00      0.00      0.00      0.00;
   3642      19.98     -6.5      0.0       0.0       0.969     100       1         48.64     0.0       0.00      0.00      0.00      0.00      0.00      0.00      0.00      0.00      0.00      0.00      0.00;
   3740      0.0       0.0       0.0       0.0       1.016     100       1         70.58     0.0       0.00      0.00      0.00      0.00      0.00      0.00      0.00      0.00      0.00      0.00      0.00;
   3740      0.0       0.0       0.0       0.0       1.016     100       1         69.86     0.0       0.00      0.00      0.00      0.00      0.00      0.00      0.00      0.00      0.00      0.00      0.00;
   3744      11.11     34.02     0.0       0.0       1.013     100       1         21.34     0.0       0.00      0.00      0.00      0.00      0.00      0.00      0.00      0.00      0.00      0.00      0.00;
   3962      0.0       0.0       240.0     -140.0    0.996     100       1         250.0     0.0       0.00      0.00      0.00      0.00      0.00      0.00      0.00      0.00      0.00      0.00      0.00;
   3962      0.0       0.0       240.0     -140.0    0.996     100       1         250.0     0.0       0.00      0.00      0.00      0.00      0.00      0.00      0.00      0.00      0.00      0.00      0.00;
   3962      0.0       0.0       240.0     -140.0    0.996     100       1         250.0     0.0       0.00      0.00      0.00      0.00      0.00      0.00      0.00      0.00      0.00      0.00      0.00;
   3963      0.0       0.0       180.0     -110.0    0.984     100       1         520.0     0.0       0.00      0.00      0.00      0.00      0.00      0.00      0.00      0.00      0.00      0.00      0.00;
   3964      406.58    -468.0    0.0       0.0       1.014     100       1         450.0     0.0       0.00      0.00      0.00      0.00      0.00      0.00      0.00      0.00      0.00      0.00      0.00;
   3968      176.26    -182.0    58.8      -58.8     0.956     100       1         243.2     0.0       0.00      0.00      0.00      0.00      0.00      0.00      0.00      0.00      0.00      0.00      0.00;
   3974      0.0       0.0       0.0       0.0       0.993     100       1         180.0     0.0       0.00      0.00      0.00      0.00      0.00      0.00      0.00      0.00      0.00      0.00      0.00;
   3974      0.0       0.0       0.0       0.0       0.993     100       1         225.0     0.0       0.00      0.00      0.00      0.00      0.00      0.00      0.00      0.00      0.00      0.00      0.00;
   3974      0.0       0.0       0.0       0.0       0.993     100       1         270.0     0.0       0.00      0.00      0.00      0.00      0.00      0.00      0.00      0.00      0.00      0.00      0.00;
   3974      0.0       0.0       0.0       0.0       0.993     100       1         315.0     0.0       0.00      0.00      0.00      0.00      0.00      0.00      0.00      0.00      0.00      0.00      0.00;
   3974      0.0       0.0       0.0       0.0       0.993     100       1         45.0      0.0       0.00      0.00      0.00      0.00      0.00      0.00      0.00      0.00      0.00      0.00      0.00;
   3974      0.0       0.0       0.0       0.0       0.993     100       1         90.0      0.0       0.00      0.00      0.00      0.00      0.00      0.00      0.00      0.00      0.00      0.00      0.00;
   3974      0.0       0.0       0.0       0.0       0.993     100       1         135.0     0.0       0.00      0.00      0.00      0.00      0.00      0.00      0.00      0.00      0.00      0.00      0.00;
   3977      0.0       0.0       0.0       0.0       1.017     100       1         270.0     0.0       0.00      0.00      0.00      0.00      0.00      0.00      0.00      0.00      0.00      0.00      0.00;
   3977      0.0       0.0       0.0       0.0       1.017     100       1         315.0     0.0       0.00      0.00      0.00      0.00      0.00      0.00      0.00      0.00      0.00      0.00      0.00;
   3977      0.0       0.0       0.0       0.0       1.017     100       1         360.0     0.0       0.00      0.00      0.00      0.00      0.00      0.00      0.00      0.00      0.00      0.00      0.00;
   3977      0.0       0.0       0.0       0.0       1.017     100       1         405.0     0.0       0.00      0.00      0.00      0.00      0.00      0.00      0.00      0.00      0.00      0.00      0.00;
   3977      0.0       0.0       0.0       0.0       1.017     100       1         450.0     0.0       0.00      0.00      0.00      0.00      0.00      0.00      0.00      0.00      0.00      0.00      0.00;
   3977      0.0       0.0       0.0       0.0       1.017     100       1         495.0     0.0       0.00      0.00      0.00      0.00      0.00      0.00      0.00      0.00      0.00      0.00      0.00;
   3977      0.0       0.0       0.0       0.0       1.017     100       1         540.0     0.0       0.00      0.00      0.00      0.00      0.00      0.00      0.00      0.00      0.00      0.00      0.00;
   3977      0.0       0.0       0.0       0.0       1.017     100       1         45.0      0.0       0.00      0.00      0.00      0.00      0.00      0.00      0.00      0.00      0.00      0.00      0.00;
   3977      0.0       0.0       0.0       0.0       1.017     100       1         90.0      0.0       0.00      0.00      0.00      0.00      0.00      0.00      0.00      0.00      0.00      0.00      0.00;
   3977      0.0       0.0       0.0       0.0       1.017     100       1         135.0     0.0       0.00      0.00      0.00      0.00      0.00      0.00      0.00      0.00      0.00      0.00      0.00;
   3977      0.0       0.0       0.0       0.0       1.017     100       1         180.0     0.0       0.00      0.00      0.00      0.00      0.00      0.00      0.00      0.00      0.00      0.00      0.00;
   3977      0.0       0.0       0.0       0.0       1.017     100       1         225.0     0.0       0.00      0.00      0.00      0.00      0.00      0.00      0.00      0.00      0.00      0.00      0.00;
   3978      0.0       0.0       0.0       0.0       1.017     100       1         585.0     0.0       0.00      0.00      0.00      0.00      0.00      0.00      0.00      0.00      0.00      0.00      0.00;
   3978      0.0       0.0       0.0       0.0       1.017     100       1         630.0     0.0       0.00      0.00      0.00      0.00      0.00      0.00      0.00      0.00      0.00      0.00      0.00;
   3978      0.0       0.0       0.0       0.0       1.017     100       1         675.0     0.0       0.00      0.00      0.00      0.00      0.00      0.00      0.00      0.00      0.00      0.00      0.00;
   3978      0.0       0.0       0.0       0.0       1.017     100       1         810.0     0.0       0.00      0.00      0.00      0.00      0.00      0.00      0.00      0.00      0.00      0.00      0.00;
   3978      0.0       0.0       0.0       0.0       1.017     100       1         855.0     0.0       0.00      0.00      0.00      0.00      0.00      0.00      0.00      0.00      0.00      0.00      0.00;
   3978      0.0       0.0       0.0       0.0       1.017     100       1         928.7     0.0       0.00      0.00      0.00      0.00      0.00      0.00      0.00      0.00      0.00      0.00      0.00;
   3978      0.0       0.0       0.0       0.0       1.017     100       1         720.0     0.0       0.00      0.00      0.00      0.00      0.00      0.00      0.00      0.00      0.00      0.00      0.00;
   3978      0.0       0.0       0.0       0.0       1.017     100       1         765.0     0.0       0.00      0.00      0.00      0.00      0.00      0.00      0.00      0.00      0.00      0.00      0.00;
   4016      22.45     -159.0    24.0      -24.0     0.982     100       1         50.0      0.0       0.00      0.00      0.00      0.00      0.00      0.00      0.00      0.00      0.00      0.00      0.00;
   4039      7.21      -81.6     0.0       0.0       0.928     100       1         35.0      0.0       0.00      0.00      0.00      0.00      0.00      0.00      0.00      0.00      0.00      0.00      0.00;
   4042      28.68     422.5     72.4      -140.0    0.955     100       1         330.0     0.0       0.00      0.00      0.00      0.00      0.00      0.00      0.00      0.00      0.00      0.00      0.00;
   4044      55.68     -208.0    39.4      -94.8     0.978     100       1         120.0     0.0       0.00      0.00      0.00      0.00      0.00      0.00      0.00      0.00      0.00      0.00      0.00;
   4052      143.62    -148.0    0.0       0.0       1.005     100       1         240.0     0.0       0.00      0.00      0.00      0.00      0.00      0.00      0.00      0.00      0.00      0.00      0.00;
   4054      105.83    -68.9     22.0      -22.0     0.959     100       1         140.0     0.0       0.00      0.00      0.00      0.00      0.00      0.00      0.00      0.00      0.00      0.00      0.00;
   4064      97.83     152.5     0.0       0.0       1.002     100       1         399.0     0.0       0.00      0.00      0.00      0.00      0.00      0.00      0.00      0.00      0.00      0.00      0.00;
...